[TITLE]
;;Project Title/Notes
test_name

[OPTIONS]
FLOW_UNITS    CMS
INFILTRATION    MODIFIED_GREEN_AMPT
FLOW_ROUTING    DYNWAVE
LINK_OFFSETS    ELEVATION
MIN_SLOPE    0
ALLOW_PONDING    YES
SKIP_STEADY_STATE    NO
START_DATE    01/01/2021
START_TIME    00:00:00
REPORT_START_DATE    01/01/2021
REPORT_START_TIME    00:00:00
END_DATE    01/03/2021
END_TIME    00:00:00
SWEEP_START    01/01
SWEEP_END    12/01
DRY_DAYS    0
REPORT_STEP    00:15:00
WET_STEP    00:05:00
DRY_STEP    01:00:00
ROUTING_STEP    00:00:01
RULE_STEP    00:00:00
INERTIAL_DAMPING    PARTIAL
NORMAL_FLOW_LIMITED    BOTH
FORCE_MAIN_EQUATION    D-W
VARIABLE_STEP    0
LENGTHENING_STEP    0
MIN_SURFAREA    0
MAX_TRIALS    0
HEAD_TOLERANCE    0
SYS_FLOW_TOL    5
LAT_FLOW_TOL    5
MINIMUM_STEP    0.5
THREADS    1

[EVAPORATION]
CONSTANT         0.0
DRY_ONLY         NO

[RAINGAGES]
RG_1    VOLUME    1:00    1    TIMESERIES TS_1

[SUBCATCHMENTS]
S_1    RG_1    J_4    10243.426947454485    82.0    100    5    0    

[SUBAREAS]
S_1    0.023    0.15    2.0    3.0    0    OUTLET    100.0

[INFILTRATION]
S_1    60.955    29.969    0.25            MODIFIED_GREEN_AMPT

[JUNCTIONS]
J_1    3.0    2.0    0.0    0    10
J_2    3.2    2.3    0.0    0    10
J_3    1.5    1.0    0.0    100    0
J_4    1.0    0.5    0.1    0    0
J_5    0.74    0.26    0.0    0    0

[OUTFALLS]
Out_1    0.0    FREE        NO    
Out_2    0.0    FREE        NO    

[STORAGE]
St_1    0.0    2.0    0.9    TABULAR    StC_01    0    0            

[CONDUITS]
C_3    J_3    J_2    299.9009999452994    0.011    *    *    0    0
C_2    J_2    J_1    215.5845762356832    0.011    *    *    0    0
C_1    J_1    Out_1    149.59839662674491    0.015    *    *    0    0
C_4    J_4    J_5    199.3808096739656    0.015    *    *    0    0
C_5    J_5    St_1    198.48049966122002    0.015    *    *    0    0

[PUMPS]
P_1   St_1    J_3    PC_1    OFF    1.5    0.9

[WEIRS]
 W_1  St_1  Out_2  TRANSVERSE  1.0  3.0  NO  0.0  0.0  YES      

[XSECTIONS]
C_3   CIRCULAR    0.2    0.0    0    0    1    
C_2   CIRCULAR    0.5    0.0    0    0    1    
C_1   CIRCULAR    0.5    0.0    0    0    1    
C_4   CIRCULAR    0.3    0.0    0    0    1    
C_5   CIRCULAR    0.3    0.0    0    0    1    
W_1   RECT_OPEN    0.9    1.0                

[LOSSES]
C_3   0   0   0   NO   
C_2   0   0   0   NO   
C_1   0   0   0   NO   
C_4   0   0   0   NO   
C_5   0   0   0   NO   

[POLLUTANTS]
     BOD  MG/L  0  0  0  0  NO  *  0  0  0
 N_Total  MG/L  0  0  0  0  NO  *  0  0  0

[LANDUSES]
 LU_1  0.0  0.0  0.0
 LU_2  0.0  0.0  0.0

[BUILDUP]
 LU_1      BOD  POW  20.0  0.79  1.0  AREA
 LU_1  N_Total  POW  20.0  1.00  0.0  AREA
 LU_2      BOD  POW  30.0  1.00  1.0  AREA
 LU_2  N_Total  POW  30.0  2.00  0.0  AREA

[WASHOFF]
 LU_1      BOD  EXP  1.0  1.0  0.0  0.0
 LU_1  N_Total  EXP  1.0  1.0  0.0  0.0
 LU_2      BOD  EXP  1.0  1.0  0.0  0.0
 LU_2  N_Total  EXP  1.0  1.0  0.0  0.0

[COVERAGES]
 S_1  LU_1   7.58
 S_1  LU_1  24.22

[LOADINGS]

[DWF]
J_2    FLOW    0.01    dry_weather_hourly dry_weather_monthly "" ""

[CURVES]
StC_01    STORAGE    0.0    1.0
StC_01        0.1    4.0
StC_01        0.2    9.0
StC_01        0.3    12.2
StC_01        0.4    12.3
StC_01        0.5    12.4
StC_01        0.6    12.5
StC_01        0.7    12.6
StC_01        0.8    12.7
StC_01        0.9    12.8
StC_01        1.0    12.9
StC_01        1.1    13.0
StC_01        1.2    13.1
StC_01        1.3    13.2
StC_01        1.4    13.3
StC_01        1.5    13.4
StC_01        1.6    13.5
StC_01        1.7    13.6
StC_01        1.8    13.7
StC_01        1.9    13.8
;
StC_02    STORAGE    0.0    0.2
StC_02        0.5    1.0
;
PC_1    Pump2    0.0    0.001
PC_1        0.5    0.001
PC_1        1.0    0.01
PC_1        1.5    0.015
PC_1        2.0    0.02
;

[TIMESERIES]
;RG_1
 TS_1  01/02/2021  00:00:00  0.0
 TS_1  01/02/2021  01:00:00  0.0
 TS_1  01/02/2021  02:00:00  0.0
 TS_1  01/02/2021  03:00:00  0.0
 TS_1  01/02/2021  04:00:00  0.0
 TS_1  01/02/2021  05:00:00  0.2
 TS_1  01/02/2021  06:00:00  0.3
 TS_1  01/02/2021  07:00:00  0.5
 TS_1  01/02/2021  08:00:00  0.8
 TS_1  01/02/2021  09:00:00  0.6
 TS_1  01/02/2021  10:00:00  0.3
 TS_1  01/02/2021  11:00:00  0.1
 TS_1  01/02/2021  12:00:00  0.0

[PATTERNS]
dry_weather_hourly    HOURLY    0.64    0.53    0.47    0.45    0.47    0.63
dry_weather_hourly        0.94    1.21    1.38    1.43    1.38    1.32
dry_weather_hourly        1.24    1.16    1.11    1.08    1.08    1.15
dry_weather_hourly        1.23    1.23    1.15    1.02    0.93    0.77
;
dry_weather_monthly    MONTHLY    1.08    1.03    1.05    1.08    0.99    0.98
dry_weather_monthly        0.99    0.95    0.93    0.96    0.97    1.0
;

[REPORT]
SUBCATCHMENTS ALL
NODES ALL
LINKS ALL

[TAGS]

[COORDINATES]
J_1    310028.83542036    5998723.179801358
J_2    309815.9686494144    5998688.996816242
J_3    309696.3282015074    5998413.979163269
J_4    309313.32339100644    5998132.746422085
J_5    309464.8161659512    5998243.841123711
Out_1    310101.3509994595    5998854.034993632
Out_2    309745.9335280071    5998259.417303928
St_1    309655.9301281843    5998297.446259459

[VERTICES]
 P_1  309655.93  5998297.45
 P_1  309696.33  5998413.98

[Polygons]
 S_1  309224.76  5998177.81
 S_1  309277.59  5998129.64
 S_1  309312.93  5998050.78
 S_1  309246.51  5998023.21
 S_1  309188.63  5998105.56
 S_1  309224.76  5998177.81

[SYMBOLS]
RG_1            315142.721       5998080.373     
