[TITLE]
;;Project Title/Notes
test_name

[OPTIONS]
;;Option             Value
FLOW_UNITS           CMS
INFILTRATION         MODIFIED_GREEN_AMPT
FLOW_ROUTING         DYNWAVE
LINK_OFFSETS         ELEVATION
MIN_SLOPE            0
ALLOW_PONDING        YES
SKIP_STEADY_STATE    NO

START_DATE           01/01/2021
START_TIME           00:00:00
REPORT_START_DATE    01/01/2021
REPORT_START_TIME    00:00:00
END_DATE             01/03/2021
END_TIME             00:00:00
SWEEP_START          01/01
SWEEP_END            12/01
DRY_DAYS             0
REPORT_STEP          00:15:00
WET_STEP             00:05:00
DRY_STEP             01:00:00
ROUTING_STEP         0:00:01 
RULE_STEP            00:00:00

INERTIAL_DAMPING     PARTIAL
NORMAL_FLOW_LIMITED  BOTH
FORCE_MAIN_EQUATION  D-W
VARIABLE_STEP        0.00
LENGTHENING_STEP     0
MIN_SURFAREA         0
MAX_TRIALS           0
HEAD_TOLERANCE       0
SYS_FLOW_TOL         5
LAT_FLOW_TOL         5
MINIMUM_STEP         0.5
THREADS              1

[EVAPORATION]
;;Data Source    Parameters
;;-------------- ----------------
CONSTANT         0.0
DRY_ONLY         NO

[RAINGAGES]
;;Name           Format    Interval SCF      Source    
;;-------------- --------- ------ ------ ----------
RG_1             VOLUME    1:00     1        TIMESERIES TS_1            

[SUBCATCHMENTS]
;;Name           Rain Gage        Outlet           Area     %Imperv  Width    %Slope   CurbLen  SnowPack        
;;-------------- ---------------- ---------------- -------- -------- -------- -------- -------- ----------------
S_1              RG_1             J_4              10243.426947454485 82.0     100.0    5.0      0.0                      

[SUBAREAS]
;;Subcatchment   N-Imperv   N-Perv     S-Imperv   S-Perv     PctZero    RouteTo    PctRouted 
;;-------------- ---------- ---------- ---------- ---------- ---------- ---------- ----------
S_1              0.023      0.15       2.0        3.0        0.0        OUTLET    

[INFILTRATION]
;;Subcatchment   Param1     Param2     Param3     Param4     Param5    
;;-------------- ---------- ---------- ---------- ---------- ----------
S_1              60.955     29.969     0.25       7          0         

[JUNCTIONS]
;;Name           Elevation  MaxDepth   InitDepth  SurDepth   Aponded   
;;-------------- ---------- ---------- ---------- ---------- ----------
J_1              3.0        2.0        0.0        0.0        10.0      
J_2              3.2        2.3        0.0        0.0        10.0      
J_3              1.5        1.0        0.0        100.0      0.0       
J_4              1.0        0.5        0.1        0.0        0.0       

[OUTFALLS]
;;Name           Elevation  Type       Stage Data       Gated    Route To        
;;-------------- ---------- ---------- ---------------- -------- ----------------
Out_1            0.0        TIDAL      tdc_1            NO                       
Out_2            0.0        FIXED      7                NO                       

[DIVIDERS]
;;Name           Elevation  Diverted Link    Type       Parameters
;;-------------- ---------- ---------------- ---------- ----------
J_5              0.74       C_6              CUTOFF     0.005      0.26       0.0        0.0        400.0     

[STORAGE]
;;Name           Elev.    MaxDepth   InitDepth  Shape      Curve Name/Params            N/A      Fevap    Psi      Ksat     IMD     
;;-------------- -------- ---------- ----------- ---------- ---------------------------- -------- --------          -------- --------
St_1             0.0      2.0        0.9        TABULAR    StC_01                       0.0      0.0     

[CONDUITS]
;;Name           From Node        To Node          Length     Roughness  InOffset   OutOffset  InitFlow   MaxFlow   
;;-------------- ---------------- ---------------- ---------- ---------- ---------- ---------- ---------- ----------
C_3              J_3              J_2              299.9009999452994 0.011      *          *          0.0        0.0       
C_1              J_1              Out_1            149.59839662674491 0.015      *          *          0.0        0.0       
C_4              J_4              J_5              199.3808096739656 0.015      *          *          0.0        0.0       
C_5              J_5              St_1             198.48049966122002 0.015      *          *          0.0        0.0       
C_6              J_5              J_2              400.0      0.01       3.5        *          0.0        0.0       

[PUMPS]
;;Name           From Node        To Node          Pump Curve       Status   Sartup Shutoff 
;;-------------- ---------------- ---------------- ---------------- ------ -------- --------
P_1              St_1             J_3              PC_1             OFF      1.5      0.9     

[WEIRS]
;;Name           From Node        To Node          Type         CrestHt    Qcoeff     Gated    EndCon   EndCoeff   Surcharge  RoadWidth  RoadSurf   Coeff. Curve
;;-------------- ---------------- ---------------- ------------ ---------- ---------- -------- -------- ---------- ---------- ---------- ---------- ----------------
W_1              St_1             Out_2            TRANSVERSE   1.0        3.0        NO       0.0      0.0        YES       

[OUTLETS]
;;Name           From Node        To Node          Offset     Type            QTable/Qcoeff    Qexpon     Gated   
;;-------------- ---------------- ---------------- ---------- --------------- ---------------- ---------- --------
R_1              J_2              J_1              0.0        FUNCTIONAL/DEPTH 1.0              2.0        YES     

[XSECTIONS]
;;Link           Shape        Geom1            Geom2      Geom3      Geom4      Barrels    Culvert   
;;-------------- ------------ ---------------- ---------- ---------- ---------- ---------- ----------
C_3              CIRCULAR     0.2              0.0        0.0        0.0        1.0                  
C_1              CIRCULAR     0.5              0.0        0.0        0.0        1.0                  
C_4              IRREGULAR    tr_1             0          0          0          1                    
C_5              CIRCULAR     0.3              0.0        0.0        0.0        1.0                  
C_6              CIRCULAR     1.0              0.0        0.0        0.0        1.0                  
W_1              RECT_OPEN    0.9              1.0        0.0        0.0       

[TRANSECTS]
;;Transect Data in HEC-2 format
;
NC 0.043    0.043    0.043   
X1 tr_1              11       0.0      0.0      0.0      0.0      0.0      0.0      0.0     
GR 2.29     1.0      2.22     2.0      2.15     3.0      2.09     4.0      2.01     5.0     
GR 1.92     6.0      1.81     7.0      1.7      8.0      1.6      9.0      1.52     10.0    
GR 1.45     11.0    
;
NC 0.044000000000000004 0.043    0.046   
X1 tr_2              5        0.0      0.0      0.0      0.0      0.0      0.0      0.0     
GR 6.0      1.0      5.5      1.5      4.0      2.0      5.8      2.5      6.2      3.0     

[LOSSES]
;;Link           Kentry     Kexit      Kavg       Flap Gate  Seepage   
;;-------------- ---------- ---------- ---------- ---------- ----------
C_3              0.0        0.0        0.0        NO         0.0       
C_1              0.0        0.0        0.0        NO         0.0       
C_4              0.0        0.0        0.0        NO         0.0       
C_5              0.0        0.0        0.0        NO         0.0       

[POLLUTANTS]
;;Name           Units  Crain      Cgw        Crdii      Kdecay     SnowOnly   Co-Pollutant     Co-Frac    Cdwf       Cinit     
;;-------------- ------ ---------- ---------- ---------- ---------- ---------- ---------------- ---------- ---------- ----------
BOD              MG/L   0          0          0          0          NO         *                0          0          0         
N_Total          MG/L   0          0          0          0          NO         *                0          0          0         

[LANDUSES]
;;               Sweeping   Fraction   Last      
;;Name           Interval   Available  Swept     
;;-------------- ---------- ---------- ----------
LU_1             0          0          0         
LU_2             0          0          0         

[COVERAGES]
;;Subcatchment   Land Use         Percent   
;;-------------- ---------------- ----------
S_1              LU_1             24.22     

[LOADINGS]
;;Subcatchment   Pollutant        Buildup   
;;-------------- ---------------- ----------

[BUILDUP]
;;Land Use       Pollutant        Function   Coeff1     Coeff2     Coeff3     Per Unit  
;;-------------- ---------------- ---------- ---------- ---------- ---------- ----------
LU_1             BOD              POW        20         0.79       1          AREA      
LU_1             N_Total          POW        20         1.00       0          AREA      
LU_2             BOD              POW        30         1.00       1          AREA      
LU_2             N_Total          POW        30         2.00       0          AREA      

[WASHOFF]
;;Land Use       Pollutant        Function   Coeff1     Coeff2     SweepRmvl  BmpRmvl   
;;-------------- ---------------- ---------- ---------- ---------- ---------- ----------
LU_1             BOD              EXP        1          1          0          0         
LU_1             N_Total          EXP        1          1          0          0         
LU_2             BOD              EXP        1          1          0          0         
LU_2             N_Total          EXP        1          1          0          0         

[INFLOWS]
;;Node           Constituent      Time Series      Type     Mfactor  Sfactor  Baseline Pattern
;;-------------- ---------------- ---------------- -------- -------- -------- -------- --------
J_5              BOD              ""               CONCEN   1.0      1.0      3        dry_weather_hourly

[DWF]
;;Node           Constituent      Baseline   Patterns  
;;-------------- ---------------- ---------- ----------
J_2              FLOW             0.01       "dry_weather_hourly" "dry_weather_monthly"
J_5              FLOW             2          "" "" ""

[CURVES]
;;Name           Type       X-Value    Y-Value   
;;-------------- ---------- ---------- ----------
PC_1             Pump2      0.0        0.001     
PC_1                        0.5        0.001     
PC_1                        1.0        0.01      
PC_1                        1.5        0.015     
PC_1                        2.0        0.02      
;
rc_02            Rating     1          0.9       
rc_02                       2          1.1       
rc_02                       3          1.3       
rc_02                       4          1.5       
rc_02                       5          1.7       
rc_02                       6          1.9       
rc_02                       7          2.1       
;
StC_01           Storage    0.0        1.0       
StC_01                      0.1        4.0       
StC_01                      0.2        9.0       
StC_01                      0.3        12.2      
StC_01                      0.4        12.3      
StC_01                      0.5        12.4      
StC_01                      0.6        12.5      
StC_01                      0.7        12.6      
StC_01                      0.8        12.7      
StC_01                      0.9        12.8      
StC_01                      1.0        12.9      
StC_01                      1.1        13.0      
StC_01                      1.2        13.1      
StC_01                      1.3        13.2      
StC_01                      1.4        13.3      
StC_01                      1.5        13.4      
StC_01                      1.6        13.5      
StC_01                      1.7        13.6      
StC_01                      1.8        13.7      
StC_01                      1.9        13.8      
;
StC_02           Storage    0.0        0.2       
StC_02                      0.5        1.0       
;
tdc_1            Tidal      1          0         
tdc_1                       2          0         
tdc_1                       3          0.3       
tdc_1                       4          0.2       
tdc_1                       5          0.2       
tdc_1                       6          0         
;
wc_1             Weir       1          0.2       
wc_1                        2          0.3       
wc_1                        3          0.4       
wc_1                        4          0.5       

[TIMESERIES]
;;Name           Date       Time       Value     
;;-------------- ---------- ---------- ----------
;RG_1
TS_1             01/02/2021 00:00:00   0.0       
TS_1             01/02/2021 01:00:00   0.0       
TS_1             01/02/2021 02:00:00   0.0       
TS_1             01/02/2021 03:00:00   0.0       
TS_1             01/02/2021 04:00:00   0.0       
TS_1             01/02/2021 05:00:00   0.2       
TS_1             01/02/2021 06:00:00   0.3       
TS_1             01/02/2021 07:00:00   0.5       
TS_1             01/02/2021 08:00:00   0.8       
TS_1             01/02/2021 09:00:00   0.6       
TS_1             01/02/2021 10:00:00   0.3       
TS_1             01/02/2021 11:00:00   0.1       
TS_1             01/02/2021 12:00:00   0.0       

[PATTERNS]
;;Name           Type       Multipliers
;;-------------- ---------- -----------
dry_weather_hourly HOURLY     0.64  0.53  0.47  0.45  0.47  0.63 
dry_weather_hourly            0.94  1.21  1.38  1.43  1.38  1.32 
dry_weather_hourly            1.24  1.16  1.11  1.08  1.08  1.15 
dry_weather_hourly            1.23  1.23  1.15  1.02  0.93  0.77 
;
dry_weather_monthly MONTHLY    1.08  1.03  1.05  1.08  0.99  0.98 
dry_weather_monthly            0.99  0.95  0.93  0.96  0.97  1.0  

[REPORT]
;;Reporting Options
SUBCATCHMENTS ALL
NODES ALL
LINKS ALL

[TAGS]

[MAP]
DIMENSIONS 309142.994 5997981.669 310146.987 5998895.576
Units      None

[COORDINATES]
;;Node           X-Coord            Y-Coord           
;;-------------- ------------------ ------------------
J_1              310028.835         5998723.180       
J_2              309815.969         5998688.997       
J_3              309696.328         5998413.979       
J_4              309313.323         5998132.746       
Out_1            310101.351         5998854.035       
Out_2            309745.934         5998259.417       
J_5              309464.816         5998243.841       
St_1             309655.930         5998297.446       

[VERTICES]
;;Link           X-Coord            Y-Coord           
;;-------------- ------------------ ------------------
C_4              309337.410         5998182.080       
C_4              309369.260         5998199.170       
C_4              309389.850         5998220.920       
C_6              309532.670         5998444.490       

[Polygons]
;;Subcatchment   X-Coord            Y-Coord           
;;-------------- ------------------ ------------------
S_1              309224.760         5998177.810       
S_1              309277.590         5998129.640       
S_1              309312.930         5998050.780       
S_1              309246.510         5998023.210       
S_1              309188.630         5998105.560       
S_1              309224.760         5998177.810       

[SYMBOLS]
;;Gage           X-Coord            Y-Coord           
;;-------------- ------------------ ------------------
RG_1             309255.863         5998120.802       

