[TITLE]

[OPTIONS]

[EVAPORATION]

[RAINGAGES]

[SUBCATCHMENTS]

[SUBAREAS]

[INFILTRATION]

[JUNCTIONS]

[OUTFALLS]

[DIVIDERS]

[STORAGE]

[CONDUITS]

[PUMPS]

[ORIFICES]

[WEIRS]

[OUTLETS]

[XSECTIONS]

[INLETS]

[INLET_USAGE]

[TRANSECTS]

[LOSSES]

[POLLUTANTS]

[LANDUSES]

[COVERAGES]

[LOADINGS]

[BUILDUP]

[WASHOFF]

[INFLOWS]

[DWF]

[CURVES]

[TIMESERIES]

[PATTERNS]

[REPORT]

[TAGS]

[MAP]

[COORDINATES]

[VERTICES]

[Polygons]

[SYMBOLS]


